Version 4
SHEET 1 880 680
SYMBOL voltage -112 -96 R0
WINDOW 123 24 124 Left 2
WINDOW 39 0 0 Left 2
SYMATTR InstName V1
SYMATTR Value SINE()
SYMATTR Value2 AC 330 0
